"FMS Model results"
0001 1 1 0 0 0
# = output files =
# file_name, output_freq, output_units, format, time_units, long_name

"atmos_daily", 1, "days", 1, "days", "time",

# = diagnostic field entries =
# module_name, field_name, output_name, file_name, time_sampling, time_avg, other_opts, precision

"dynamics", "pk", "pk", "atmos_daily", "all", .false., "none", 2,
"dynamics", "temp", "temp", "atmos_daily", "all", .true., "none", 2,
"dynamics", "ps", "ps", "atmos_daily", "all", .true., "none", 2,
"dynamics", "sphum", "sphum", "atmos_daily", "all", .true., "none", 2,
"dynamics", "ucomp", "ucomp", "atmos_daily", "all", .true., "none", 2,
"dynamics", "vcomp", "vcomp", "atmos_daily", "all", .true., "none", 2,
"mixed_layer", "flux_t", "flux_t", "atmos_daily", "all", .true., "none", 2,
"mixed_layer", "flux_lhe", "flux_lhe", "atmos_daily", "all", .true., "none", 2,
"mixed_layer", "t_surf", "t_surf", "atmos_daily", "all", .true., "none", 2,
"atmosphere", "w_atm", "w_atm", "atmos_daily", "all", .true., "none", 2,
"atmosphere", "drag_q", "drag_q", "atmos_daily", "all", .true., "none", 2,
"atmosphere", "drag_t", "drag_t", "atmos_daily", "all", .true., "none", 2,
"atmosphere", "rho", "rho", "atmos_daily", "all", .true., "none", 2,
"atmosphere", "q_atm", "q_atm", "atmos_daily", "all", .true., "none", 2,
"atmosphere", "q_surf", "q_surf", "atmos_daily", "all", .true., "none", 2,
"atmosphere", "t_atm", "t_atm", "atmos_daily", "all", .true., "none", 2,
"atmosphere", "p_atm", "p_atm", "atmos_daily", "all", .true., "none", 2,
